<nodes>
<node id="1" x="26.9" y="0" />
<node id="2" x="53.8" y="0" />
<node id="3" x="80.7" y="0" />
<node id="4" x="107" y="0" />
<node id="5" x="133.3" y="0" />
<node id="6" x="159.6" y="0" />
<node id="7" x="185.9" y="0" />
<node id="8" x="212.2" y="0" />
<node id="9" x="238.5" y="0" />
<node id="10" x="264.8" y="0" />
<node id="11" x="291.1" y="0" />
<node id="12" x="317.4" y="0" />
<node id="13" x="343.7" y="0" />
<node id="14" x="26.9" y="100" />
<node id="15" x="53.8" y="100" />
<node id="16" x="80.7" y="100"/>
<node id="17" x="107" y="100" />
<node id="18" x="133.3" y="100" />
<node id="19" x="159.6" y="100" />
<node id="20" x="185.9" y="100" />
<node id="21" x="212.2" y="100" />
<node id="22" x="238.5" y="100" />
<node id="23" x="264.8" y="100" />
<node id="24" x="291.1" y="100" />
<node id="25" x="317.4" y="100"/>
<node id="26" x="343.7" y="100" />
<node id="27" x="26.9" y="200" />
<node id="28" x="53.8" y="200" />
<node id="29" x="80.7" y="200"/>
<node id="30" x="107" y="200" />
<node id="31" x="133.3" y="200" />
<node id="32" x="159.6" y="200" />
<node id="33" x="185.9" y="200" />
<node id="34" x="212.2" y="200" />
<node id="35" x="238.5" y="200" />
<node id="36" x="264.8" y="200" />
<node id="37" x="291.1" y="200" />
<node id="38" x="317.4" y="200" />
<node id="39" x="343.7" y="200" />
</nodes>