<?xml version="1.0" encoding="UTF-8"?>

<!-- generated on 2022-01-24 17:51:55 by Eclipse SUMO duarouter Version 1.11.0
<configuration xmlns:xsi="http://www.w3.org/2001/XMLSchema-instance" xsi:noNamespaceSchemaLocation="http://sumo.dlr.de/xsd/duarouterConfiguration.xsd">

    <input>
        <net-file value="sumotest.net.xml"/>
        <route-files value="sumotest.trips.xml"/>
    </input>

    <output>
        <output-file value="sumotest.rou.xml"/>
        <alternatives-output value="sumotest.rou.alt.xml"/>
    </output>

</configuration>
-->

<routes xmlns:xsi="http://www.w3.org/2001/XMLSchema-instance" xsi:noNamespaceSchemaLocation="http://sumo.dlr.de/xsd/routes_file.xsd">
    <vehicle id="0" depart="0.00">
        <route edges="e58 e98 e97 e96 e95 e94 e93 e92 e91 e90 e106 e77 e76 e101"/>
    </vehicle>
    <vehicle id="1" depart="1.00">
        <route edges="e18 e19 e20 e123"/>
    </vehicle>
    <vehicle id="2" depart="2.00">
        <route edges="e7 e72 e71 e70 e47 e81 e62"/>
    </vehicle>
    <vehicle id="3" depart="3.00">
        <route edges="e87 e100 e10 e11 e12 e13 e14 e109"/>
    </vehicle>
    <vehicle id="4" depart="4.00">
        <route edges="e33 e10 e36 e102"/>
    </vehicle>
    <vehicle id="5" depart="5.00">
        <route edges="e123 e74 e73 e53 e84 e83 e82 e81 e80 e79 e42"/>
    </vehicle>
    <vehicle id="6" depart="6.00">
        <route edges="e102 e36 e22 e23 e24 e25 e26 e27 e28 e29 e30 e120"/>
    </vehicle>
    <vehicle id="7" depart="7.00">
        <route edges="e6 e70 e47 e48"/>
    </vehicle>
    <vehicle id="8" depart="8.00">
        <route edges="e123 e74 e73 e53"/>
    </vehicle>
    <vehicle id="9" depart="9.00">
        <route edges="e77 e76 e75 e10"/>
    </vehicle>
    <vehicle id="10" depart="10.00">
        <route edges="e77 e12 e105 e65"/>
    </vehicle>
    <vehicle id="11" depart="11.00">
        <route edges="e24 e25 e26 e27 e28 e116"/>
    </vehicle>
    <vehicle id="12" depart="12.00">
        <route edges="e93 e92 e91 e90 e89 e23"/>
    </vehicle>
    <vehicle id="13" depart="13.00">
        <route edges="e109 e67 e66 e39 e77 e76 e11"/>
    </vehicle>
    <vehicle id="14" depart="14.00">
        <route edges="e82 e16 e17 e18 e19 e121 e55"/>
    </vehicle>
    <vehicle id="15" depart="15.00">
        <route edges="e77 e12 e13 e14 e15 e62 e16 e17 e117 e7"/>
    </vehicle>
    <vehicle id="16" depart="16.00">
        <route edges="e46 e27 e28 e29 e30 e96"/>
    </vehicle>
    <vehicle id="17" depart="17.00">
        <route edges="e29 e118 e83 e115 e49"/>
    </vehicle>
    <vehicle id="18" depart="18.00">
        <route edges="e80 e15 e62 e16 e17 e18 e19 e56"/>
    </vehicle>
    <vehicle id="19" depart="19.00">
        <route edges="e83 e17 e52"/>
    </vehicle>
    <vehicle id="20" depart="20.00">
        <route edges="e65 e37 e38 e104"/>
    </vehicle>
    <vehicle id="21" depart="21.00">
        <route edges="e124 e86 e85 e19"/>
    </vehicle>
    <vehicle id="22" depart="22.00">
        <route edges="e108 e42 e25 e26 e27 e28 e29 e30 e31 e32 e124"/>
    </vehicle>
    <vehicle id="23" depart="23.00">
        <route edges="e11 e12 e13 e14 e15 e62 e16 e17"/>
    </vehicle>
    <vehicle id="24" depart="24.00">
        <route edges="e58 e98 e97 e96 e95 e94 e93 e27"/>
    </vehicle>
    <vehicle id="25" depart="25.00">
        <route edges="e28 e29 e118 e18 e19 e121"/>
    </vehicle>
    <vehicle id="26" depart="26.00">
        <route edges="e17 e83 e82 e81 e46 e92"/>
    </vehicle>
    <vehicle id="27" depart="27.00">
        <route edges="e59 e39 e13 e14 e15 e62 e16 e17 e18 e19 e121 e55"/>
    </vehicle>
    <vehicle id="28" depart="28.00">
        <route edges="e119 e72 e7"/>
    </vehicle>
    <vehicle id="29" depart="29.00">
        <route edges="e118 e83 e50 e94 e28"/>
    </vehicle>
    <vehicle id="30" depart="30.00">
        <route edges="e97 e96 e95 e94 e114 e81 e80 e109 e67 e66 e65 e59"/>
    </vehicle>
    <vehicle id="31" depart="31.00">
        <route edges="e49 e82 e81 e80 e109 e67 e66 e65 e64 e63"/>
    </vehicle>
    <vehicle id="32" depart="32.00">
        <route edges="e81 e62 e16 e17 e18 e19 e20 e123 e74"/>
    </vehicle>
    <vehicle id="33" depart="33.00">
        <route edges="e124 e86 e85 e84 e83 e82 e81 e80 e79 e78 e77 e76 e36 e102"/>
    </vehicle>
    <vehicle id="34" depart="34.00">
        <route edges="e21 e22 e23 e106 e13 e14 e15 e62 e16"/>
    </vehicle>
    <vehicle id="35" depart="35.00">
        <route edges="e122 e85 e84 e52 e95 e94 e93"/>
    </vehicle>
    <vehicle id="36" depart="36.00">
        <route edges="e85 e84 e83 e82 e81 e80 e79 e78 e77 e76 e75 e34 e21"/>
    </vehicle>
    <vehicle id="37" depart="37.00">
        <route edges="e6 e70 e69 e45 e80 e109 e67 e66 e3"/>
    </vehicle>
    <vehicle id="38" depart="38.00">
        <route edges="e9 e57 e86 e85 e84 e83 e82 e81 e80 e109 e67 e66 e65 e37"/>
    </vehicle>
    <vehicle id="39" depart="39.00">
        <route edges="e16 e82 e81 e80 e79 e14"/>
    </vehicle>
    <vehicle id="40" depart="40.00">
        <route edges="e49 e82 e16"/>
    </vehicle>
    <vehicle id="41" depart="41.00">
        <route edges="e52 e95 e94 e93 e92 e91 e90 e89 e88"/>
    </vehicle>
    <vehicle id="42" depart="42.00">
        <route edges="e30 e31 e122"/>
    </vehicle>
    <vehicle id="43" depart="43.00">
        <route edges="e98 e97 e96 e95 e94 e114 e81 e80 e44"/>
    </vehicle>
    <vehicle id="44" depart="44.00">
        <route edges="e109 e67 e66 e39 e77 e38 e104"/>
    </vehicle>
    <vehicle id="45" depart="45.00">
        <route edges="e110 e15 e62 e16 e17 e18 e19 e20 e58"/>
    </vehicle>
    <vehicle id="46" depart="46.00">
        <route edges="e75 e10 e11 e12 e13 e14 e15 e62 e16 e17 e18 e19 e56 e32"/>
    </vehicle>
    <vehicle id="47" depart="47.00">
        <route edges="e106 e40 e24 e25 e26 e27 e28 e29"/>
    </vehicle>
    <vehicle id="48" depart="48.00">
        <route edges="e98 e97 e96 e95 e94 e114 e81 e46"/>
    </vehicle>
    <vehicle id="49" depart="49.00">
        <route edges="e95 e29 e118 e18 e84"/>
    </vehicle>
    <vehicle id="50" depart="50.00">
        <route edges="e100 e10 e11 e12 e13 e14 e15 e62 e113 e69"/>
    </vehicle>
    <vehicle id="51" depart="51.00">
        <route edges="e62 e113 e47"/>
    </vehicle>
    <vehicle id="52" depart="52.00">
        <route edges="e17 e83 e82 e81 e80 e109 e67 e66 e65 e59"/>
    </vehicle>
    <vehicle id="53" depart="53.00">
        <route edges="e112 e80 e79 e78 e77 e76 e75 e34"/>
    </vehicle>
    <vehicle id="54" depart="54.00">
        <route edges="e37 e12 e13 e42 e25 e26 e27 e28 e94"/>
    </vehicle>
    <vehicle id="55" depart="55.00">
        <route edges="e85 e84 e83 e82 e16"/>
    </vehicle>
    <vehicle id="56" depart="56.00">
        <route edges="e42 e25 e26 e112 e62 e16 e17 e18 e119"/>
    </vehicle>
    <vehicle id="57" depart="57.00">
        <route edges="e89 e23 e24 e25 e110 e15 e62 e16 e17 e18 e19 e85"/>
    </vehicle>
    <vehicle id="58" depart="58.00">
        <route edges="e2 e59"/>
    </vehicle>
    <vehicle id="59" depart="59.00">
        <route edges="e55 e85 e84 e83 e50 e116"/>
    </vehicle>
    <vehicle id="60" depart="60.00">
        <route edges="e72 e71 e70 e47"/>
    </vehicle>
    <vehicle id="61" depart="61.00">
        <route edges="e74 e73 e72 e51 e83 e82 e81 e46"/>
    </vehicle>
    <vehicle id="62" depart="62.00">
        <route edges="e10 e36 e22"/>
    </vehicle>
    <vehicle id="63" depart="63.00">
        <route edges="e101 e35 e11 e12 e13 e42 e25 e91"/>
    </vehicle>
    <vehicle id="64" depart="64.00">
        <route edges="e85 e84 e83 e82 e81"/>
    </vehicle>
    <vehicle id="65" depart="65.00">
        <route edges="e20 e86 e85 e84 e83 e82 e81 e80 e79 e78 e105"/>
    </vehicle>
    <vehicle id="66" depart="66.00">
        <route edges="e85 e84 e52 e95 e94 e93"/>
    </vehicle>
    <vehicle id="67" depart="67.00">
        <route edges="e109 e67 e41 e78 e40"/>
    </vehicle>
    <vehicle id="68" depart="68.00">
        <route edges="e107 e41 e14 e15 e62 e16 e17 e117 e7 e72"/>
    </vehicle>
    <vehicle id="69" depart="69.00">
        <route edges="e72 e71 e70 e47 e113"/>
    </vehicle>
    <vehicle id="70" depart="70.00">
        <route edges="e39 e13 e14 e15 e62 e48"/>
    </vehicle>
    <vehicle id="71" depart="71.00">
        <route edges="e17 e18 e19 e85"/>
    </vehicle>
    <vehicle id="72" depart="72.00">
        <route edges="e33 e10 e11 e12 e13 e14 e15 e62 e16 e17 e18 e19 e121"/>
    </vehicle>
    <vehicle id="73" depart="73.00">
        <route edges="e47 e16 e17 e117 e7"/>
    </vehicle>
    <vehicle id="74" depart="74.00">
        <route edges="e121 e55 e20"/>
    </vehicle>
    <vehicle id="75" depart="75.00">
        <route edges="e98 e97 e120 e84 e117 e71 e70 e6"/>
    </vehicle>
    <vehicle id="76" depart="76.00">
        <route edges="e35 e11 e12 e13 e14 e15 e111 e45"/>
    </vehicle>
    <vehicle id="77" depart="77.00">
        <route edges="e113 e47 e16 e17 e18 e19 e20 e123"/>
    </vehicle>
    <vehicle id="78" depart="78.00">
        <route edges="e24 e25 e110 e15 e62 e16 e17 e18 e119 e53"/>
    </vehicle>
    <vehicle id="79" depart="79.00">
        <route edges="e124 e86 e56 e122"/>
    </vehicle>
    <vehicle id="80" depart="80.00">
        <route edges="e107 e41 e14 e15 e62 e16 e17 e18 e19 e20 e58"/>
    </vehicle>
    <vehicle id="81" depart="81.00">
        <route edges="e124 e86 e85 e84 e83 e82 e81 e80 e79 e78 e40 e89"/>
    </vehicle>
    <vehicle id="82" depart="82.00">
        <route edges="e83 e82 e81 e80 e79 e107"/>
    </vehicle>
    <vehicle id="83" depart="83.00">
        <route edges="e13 e14 e15 e62 e16 e115 e61"/>
    </vehicle>
    <vehicle id="84" depart="84.00">
        <route edges="e123 e74 e73 e72 e71 e70 e47 e113"/>
    </vehicle>
    <vehicle id="85" depart="85.00">
        <route edges="e91 e25 e26 e27 e114 e16 e17 e117 e51"/>
    </vehicle>
    <vehicle id="86" depart="86.00">
        <route edges="e39 e77 e76 e75"/>
    </vehicle>
    <vehicle id="87" depart="87.00">
        <route edges="e77 e12"/>
    </vehicle>
    <vehicle id="88" depart="88.00">
        <route edges="e11 e76 e101 e63 e33"/>
    </vehicle>
    <vehicle id="89" depart="89.00">
        <route edges="e33 e10 e11 e38"/>
    </vehicle>
    <vehicle id="90" depart="90.00">
        <route edges="e69 e45 e62"/>
    </vehicle>
    <vehicle id="91" depart="91.00">
        <route edges="e97 e96 e95 e94 e114 e81 e80 e79 e78 e77 e76 e11"/>
    </vehicle>
    <vehicle id="92" depart="92.00">
        <route edges="e31 e97 e96 e95 e94 e93 e92 e91 e90 e24"/>
    </vehicle>
    <vehicle id="93" depart="93.00">
        <route edges="e83 e82 e81 e80 e79 e14"/>
    </vehicle>
    <vehicle id="94" depart="94.00">
        <route edges="e120 e84 e83 e82 e81 e80 e109 e67 e66 e65 e64 e35"/>
    </vehicle>
    <vehicle id="95" depart="95.00">
        <route edges="e33 e10 e11 e12 e13 e14 e15 e62 e16 e17"/>
    </vehicle>
    <vehicle id="96" depart="96.00">
        <route edges="e15 e80 e79 e42 e90"/>
    </vehicle>
    <vehicle id="97" depart="97.00">
        <route edges="e35 e11 e12 e13 e14 e15 e62 e16 e17 e18 e84"/>
    </vehicle>
    <vehicle id="98" depart="98.00">
        <route edges="e48 e93 e92 e91 e90 e89 e104"/>
    </vehicle>
    <vehicle id="99" depart="99.00">
        <route edges="e98 e97 e96 e95 e94 e114 e81"/>
    </vehicle>
    <vehicle id="100" depart="100.00">
        <route edges="e95 e94 e93 e92 e91"/>
    </vehicle>
    <vehicle id="101" depart="101.00">
        <route edges="e82 e16 e17 e117"/>
    </vehicle>
    <vehicle id="102" depart="102.00">
        <route edges="e40 e24 e25 e26 e27 e28 e29 e30 e31 e122"/>
    </vehicle>
    <vehicle id="103" depart="103.00">
        <route edges="e30 e96 e95 e94 e114 e81 e80 e79 e78 e105"/>
    </vehicle>
    <vehicle id="104" depart="104.00">
        <route edges="e29 e30 e31 e32 e124 e58 e98"/>
    </vehicle>
    <vehicle id="105" depart="105.00">
        <route edges="e17 e83 e82 e81 e80 e79 e78 e77 e76 e75"/>
    </vehicle>
    <vehicle id="106" depart="106.00">
        <route edges="e37 e12 e13 e14 e15 e62 e16 e17 e18 e19 e56 e32"/>
    </vehicle>
    <vehicle id="107" depart="107.00">
        <route edges="e94 e93 e92 e91 e108 e78 e77 e76 e75 e99"/>
    </vehicle>
    <vehicle id="108" depart="108.00">
        <route edges="e49 e82 e81 e80 e109 e67"/>
    </vehicle>
    <vehicle id="109" depart="109.00">
        <route edges="e117 e71 e70 e47 e81 e80 e109 e67 e66 e65 e64 e2"/>
    </vehicle>
    <vehicle id="110" depart="110.00">
        <route edges="e95 e29 e118 e52"/>
    </vehicle>
    <vehicle id="111" depart="111.00">
        <route edges="e47 e16 e115 e61 e71"/>
    </vehicle>
    <vehicle id="112" depart="112.00">
        <route edges="e105 e39 e13 e14 e15 e62 e16 e17 e52"/>
    </vehicle>
    <vehicle id="113" depart="113.00">
        <route edges="e42 e25 e26 e112 e62 e16 e17 e83"/>
    </vehicle>
    <vehicle id="114" depart="114.00">
        <route edges="e117 e51 e52 e95"/>
    </vehicle>
    <vehicle id="115" depart="115.00">
        <route edges="e108 e14 e15 e62 e16 e17 e18 e119"/>
    </vehicle>
    <vehicle id="116" depart="116.00">
        <route edges="e53 e84 e83 e82 e81 e62"/>
    </vehicle>
    <vehicle id="117" depart="117.00">
        <route edges="e13 e14 e44 e26 e112"/>
    </vehicle>
    <vehicle id="118" depart="118.00">
        <route edges="e87 e100 e10 e11 e12 e13 e14"/>
    </vehicle>
    <vehicle id="119" depart="119.00">
        <route edges="e53 e19 e121 e9 e57"/>
    </vehicle>
    <vehicle id="120" depart="120.00">
        <route edges="e33 e10 e11 e12 e13 e14 e15 e62 e16 e17 e52"/>
    </vehicle>
    <vehicle id="121" depart="121.00">
        <route edges="e45 e46 e92"/>
    </vehicle>
    <vehicle id="122" depart="122.00">
        <route edges="e121 e73 e72 e51 e83 e82 e81 e80 e109 e67"/>
    </vehicle>
    <vehicle id="123" depart="123.00">
        <route edges="e13 e107 e66 e3"/>
    </vehicle>
    <vehicle id="124" depart="124.00">
        <route edges="e61 e71 e70 e69 e45 e80 e109 e67 e66 e65 e64 e2"/>
    </vehicle>
    <vehicle id="125" depart="125.00">
        <route edges="e21 e22 e23 e106 e13 e14 e15 e62 e16 e115 e61 e71"/>
    </vehicle>
    <vehicle id="126" depart="126.00">
        <route edges="e107 e66 e65 e37"/>
    </vehicle>
    <vehicle id="127" depart="127.00">
        <route edges="e98 e97 e96 e95 e94 e114 e81 e80 e79 e78 e77 e76 e75 e99"/>
    </vehicle>
    <vehicle id="128" depart="128.00">
        <route edges="e107 e41 e14 e15 e62 e16 e17 e18 e54 e31 e122"/>
    </vehicle>
    <vehicle id="129" depart="129.00">
        <route edges="e17 e83 e82 e81 e46 e92"/>
    </vehicle>
    <vehicle id="130" depart="130.00">
        <route edges="e86"/>
    </vehicle>
    <vehicle id="131" depart="131.00">
        <route edges="e28 e116"/>
    </vehicle>
    <vehicle id="132" depart="132.00">
        <route edges="e80 e109 e67 e66"/>
    </vehicle>
    <vehicle id="133" depart="133.00">
        <route edges="e55 e20 e58 e98"/>
    </vehicle>
    <vehicle id="134" depart="134.00">
        <route edges="e6 e70 e69 e45 e80 e79 e78 e77 e76 e75 e10"/>
    </vehicle>
    <vehicle id="135" depart="135.00">
        <route edges="e78 e77 e103 e64 e2"/>
    </vehicle>
    <vehicle id="136" depart="136.00">
        <route edges="e60 e45 e46 e92"/>
    </vehicle>
    <vehicle id="137" depart="137.00">
        <route edges="e114 e81 e111"/>
    </vehicle>
    <vehicle id="138" depart="138.00">
        <route edges="e110 e15 e62 e16 e115 e49"/>
    </vehicle>
    <vehicle id="139" depart="139.00">
        <route edges="e17 e18 e19 e121 e55"/>
    </vehicle>
    <vehicle id="140" depart="140.00">
        <route edges="e66 e3 e41 e14 e15 e62 e16 e17 e18 e19 e121"/>
    </vehicle>
    <vehicle id="141" depart="141.00">
        <route edges="e58 e98 e122 e85 e84 e83 e82 e16"/>
    </vehicle>
    <vehicle id="142" depart="142.00">
        <route edges="e41 e78 e40 e89"/>
    </vehicle>
    <vehicle id="143" depart="143.00">
        <route edges="e81 e80 e109"/>
    </vehicle>
    <vehicle id="144" depart="144.00">
        <route edges="e33 e10 e11 e12 e13 e14 e15 e62 e16 e17"/>
    </vehicle>
    <vehicle id="145" depart="145.00">
        <route edges="e10 e11 e12 e13 e14 e15 e62 e16 e17 e18 e19 e121 e73"/>
    </vehicle>
    <vehicle id="146" depart="146.00">
        <route edges="e58 e98 e122 e85 e84 e83 e82 e81 e80 e15"/>
    </vehicle>
    <vehicle id="147" depart="147.00">
        <route edges="e7 e72 e71 e49"/>
    </vehicle>
    <vehicle id="148" depart="148.00">
        <route edges="e34 e21 e87 e100"/>
    </vehicle>
    <vehicle id="149" depart="149.00">
        <route edges="e107 e66 e65 e37 e76 e36 e87"/>
    </vehicle>
    <vehicle id="150" depart="150.00">
        <route edges="e88 e22 e23 e24 e25 e26 e27 e114 e48"/>
    </vehicle>
    <vehicle id="151" depart="151.00">
        <route edges="e80 e15 e62 e16 e17 e52"/>
    </vehicle>
    <vehicle id="152" depart="152.00">
        <route edges="e116 e82 e113"/>
    </vehicle>
    <vehicle id="153" depart="153.00">
        <route edges="e21 e22 e23 e89"/>
    </vehicle>
    <vehicle id="154" depart="154.00">
        <route edges="e76 e11 e12 e13 e14 e15 e62 e16 e17 e18 e84"/>
    </vehicle>
    <vehicle id="155" depart="155.00">
        <route edges="e88 e22 e23 e106 e13 e14 e15 e62 e16 e17 e18 e19 e121"/>
    </vehicle>
    <vehicle id="156" depart="156.00">
        <route edges="e15 e80 e44 e110"/>
    </vehicle>
    <vehicle id="157" depart="157.00">
        <route edges="e74 e73 e72 e51 e83 e82 e81 e80 e79 e78 e77 e76 e36 e87"/>
    </vehicle>
    <vehicle id="158" depart="158.00">
        <route edges="e31 e122 e121 e9 e57"/>
    </vehicle>
    <vehicle id="159" depart="159.00">
        <route edges="e117 e71 e70 e47 e81 e80 e44 e91"/>
    </vehicle>
    <vehicle id="160" depart="160.00">
        <route edges="e84 e18 e54 e31 e97"/>
    </vehicle>
    <vehicle id="161" depart="161.00">
        <route edges="e77 e76 e36 e87"/>
    </vehicle>
    <vehicle id="162" depart="162.00">
        <route edges="e101 e35 e11 e12 e13 e14 e15 e62 e16 e17 e117 e7"/>
    </vehicle>
    <vehicle id="163" depart="163.00">
        <route edges="e23 e24 e25 e91"/>
    </vehicle>
    <vehicle id="164" depart="164.00">
        <route edges="e76 e11 e12 e13 e14 e15 e62 e16 e17 e18 e84"/>
    </vehicle>
    <vehicle id="165" depart="165.00">
        <route edges="e77 e12 e13 e14 e15 e62 e16"/>
    </vehicle>
    <vehicle id="166" depart="166.00">
        <route edges="e75 e10 e11 e12 e40 e24 e25 e110"/>
    </vehicle>
    <vehicle id="167" depart="167.00">
        <route edges="e85 e84"/>
    </vehicle>
    <vehicle id="168" depart="168.00">
        <route edges="e124 e86 e85 e84 e83 e82 e81 e80 e79"/>
    </vehicle>
    <vehicle id="169" depart="169.00">
        <route edges="e37 e12 e13 e14 e15 e62 e16 e17 e18 e19 e20"/>
    </vehicle>
    <vehicle id="170" depart="170.00">
        <route edges="e76 e11 e12 e13 e14 e15 e62 e16 e17 e18 e19 e20 e123"/>
    </vehicle>
    <vehicle id="171" depart="171.00">
        <route edges="e101 e35 e11 e12"/>
    </vehicle>
    <vehicle id="172" depart="172.00">
        <route edges="e23 e24 e108 e14 e15 e62 e16 e17 e18 e84"/>
    </vehicle>
    <vehicle id="173" depart="173.00">
        <route edges="e95 e116 e17"/>
    </vehicle>
    <vehicle id="174" depart="174.00">
        <route edges="e59 e39 e13 e42 e25 e26 e27 e28 e29 e30"/>
    </vehicle>
    <vehicle id="175" depart="175.00">
        <route edges="e96 e118 e83 e115 e70 e47"/>
    </vehicle>
    <vehicle id="176" depart="176.00">
        <route edges="e91 e25 e110 e15 e111"/>
    </vehicle>
    <vehicle id="177" depart="177.00">
        <route edges="e95 e29 e118 e18 e119"/>
    </vehicle>
    <vehicle id="178" depart="178.00">
        <route edges="e94 e114 e16"/>
    </vehicle>
    <vehicle id="179" depart="179.00">
        <route edges="e110 e79 e78 e77 e76 e75 e34"/>
    </vehicle>
    <vehicle id="180" depart="180.00">
        <route edges="e69 e45 e80 e79 e78 e77 e76 e75 e34 e21"/>
    </vehicle>
    <vehicle id="181" depart="181.00">
        <route edges="e54 e120 e84 e83 e82 e81 e80 e44"/>
    </vehicle>
    <vehicle id="182" depart="182.00">
        <route edges="e3 e41 e14 e15 e62 e16 e17 e52"/>
    </vehicle>
    <vehicle id="183" depart="183.00">
        <route edges="e15 e80 e109 e67 e66"/>
    </vehicle>
    <vehicle id="184" depart="184.00">
        <route edges="e10 e11 e12 e13 e42 e25 e91"/>
    </vehicle>
    <vehicle id="185" depart="185.00">
        <route edges="e46 e112 e80 e109 e67"/>
    </vehicle>
    <vehicle id="186" depart="186.00">
        <route edges="e7 e72 e71 e70 e47 e81 e62"/>
    </vehicle>
    <vehicle id="187" depart="187.00">
        <route edges="e27 e93 e112 e80 e79 e107"/>
    </vehicle>
    <vehicle id="188" depart="188.00">
        <route edges="e60 e45 e80 e44 e91 e90 e89 e88 e22"/>
    </vehicle>
    <vehicle id="189" depart="189.00">
        <route edges="e21 e22 e23 e106 e13 e14 e15 e62 e16 e17 e83"/>
    </vehicle>
    <vehicle id="190" depart="190.00">
        <route edges="e67 e66 e65 e64 e2"/>
    </vehicle>
    <vehicle id="191" depart="191.00">
        <route edges="e21 e22 e23 e24 e25 e26 e27 e28 e29 e30 e31"/>
    </vehicle>
    <vehicle id="192" depart="192.00">
        <route edges="e31 e122 e85 e19"/>
    </vehicle>
    <vehicle id="193" depart="193.00">
        <route edges="e113 e47 e16 e17 e18 e19 e56 e32"/>
    </vehicle>
    <vehicle id="194" depart="194.00">
        <route edges="e92 e26 e112 e62"/>
    </vehicle>
    <vehicle id="195" depart="195.00">
        <route edges="e88 e22 e23 e24 e25 e26 e27 e28 e29 e30 e31 e122 e56"/>
    </vehicle>
    <vehicle id="196" depart="196.00">
        <route edges="e20 e86 e85 e84 e83 e82 e48"/>
    </vehicle>
    <vehicle id="197" depart="197.00">
        <route edges="e10 e11 e12 e13 e14 e15 e62 e16 e17 e18"/>
    </vehicle>
    <vehicle id="198" depart="198.00">
        <route edges="e34 e21 e22 e23 e24 e25 e26 e27 e28 e29 e118 e52"/>
    </vehicle>
    <vehicle id="199" depart="199.00">
        <route edges="e6 e70 e69 e45 e80 e109 e67 e66 e65 e37"/>
    </vehicle>
</routes>
