<?xml version="1.0" encoding="UTF-8"?>

<!-- generated on 2022-01-20 21:04:02 by Eclipse SUMO netconvert Version 1.11.0
<configuration xmlns:xsi="http://www.w3.org/2001/XMLSchema-instance" xsi:noNamespaceSchemaLocation="http://sumo.dlr.de/xsd/netconvertConfiguration.xsd">

    <input>
        <node-files value="sumotest2.nod.xml"/>
        <edge-files value="sumotest2.edg.xml"/>
    </input>

    <output>
        <output-file value="sumotest.net.xml"/>
    </output>

    <report>
        <aggregate-warnings value="5"/>
    </report>

</configuration>
-->

<net version="1.9" junctionCornerDetail="5" limitTurnSpeed="5.50" xmlns:xsi="http://www.w3.org/2001/XMLSchema-instance" xsi:noNamespaceSchemaLocation="http://sumo.dlr.de/xsd/net_file.xsd">

    <location netOffset="-26.90,0.00" convBoundary="0.00,0.00,316.80,200.00" origBoundary="26.90,0.00,343.70,200.00" projParameter="!"/>

    <edge id=":1_0" function="internal">
        <lane id=":1_0_0" index="0" speed="1.40" length="18.06" shape="-4.80,6.40 -4.10,1.50 -2.00,-2.00 1.50,-4.10 6.40,-4.80"/>
        <lane id=":1_0_1" index="1" speed="1.40" length="12.90" shape="-1.60,6.40 -1.10,2.90 0.40,0.40 2.90,-1.10 6.40,-1.60"/>
    </edge>
    <edge id=":1_2" function="internal">
        <lane id=":1_2_0" index="0" speed="1.40" length="2.58" shape="6.40,4.80 5.70,4.90 5.20,5.20 4.90,5.70 4.80,6.40"/>
        <lane id=":1_2_1" index="1" speed="1.40" length="7.74" shape="6.40,1.60 4.30,1.90 2.80,2.80 1.90,4.30 1.60,6.40"/>
    </edge>
    <edge id=":10_0" function="internal">
        <lane id=":10_0_0" index="0" speed="1.40" length="9.03" shape="233.10,10.40 232.75,7.95 231.70,6.20 229.95,5.15 227.50,4.80"/>
        <lane id=":10_0_1" index="1" speed="1.40" length="14.19" shape="236.30,10.40 235.75,6.55 234.10,3.80 231.35,2.15 227.50,1.60"/>
    </edge>
    <edge id=":10_2" function="internal">
        <lane id=":10_2_0" index="0" speed="1.40" length="19.35" shape="236.30,10.40 237.05,5.15 239.30,1.40 243.05,-0.85 248.30,-1.60"/>
    </edge>
    <edge id=":10_3" function="internal">
        <lane id=":10_3_0" index="0" speed="1.40" length="4.67" shape="236.30,10.40 237.10,9.20 237.90,8.80 238.70,9.20 239.50,10.40"/>
    </edge>
    <edge id=":10_4" function="internal">
        <lane id=":10_4_0" index="0" speed="1.40" length="9.03" shape="248.30,4.80 245.85,5.15 244.10,6.20 243.05,7.95 242.70,10.40"/>
    </edge>
    <edge id=":10_5" function="internal">
        <lane id=":10_5_0" index="0" speed="1.40" length="20.80" shape="248.30,4.80 227.50,4.80"/>
        <lane id=":10_5_1" index="1" speed="1.40" length="20.80" shape="248.30,1.60 227.50,1.60"/>
    </edge>
    <edge id=":10_7" function="internal">
        <lane id=":10_7_0" index="0" speed="1.40" length="4.67" shape="248.30,1.60 247.10,0.80 246.70,0.00 247.10,-0.80 248.30,-1.60"/>
    </edge>
    <edge id=":10_8" function="internal">
        <lane id=":10_8_0" index="0" speed="1.40" length="20.80" shape="227.50,-4.80 248.30,-4.80"/>
        <lane id=":10_8_1" index="1" speed="1.40" length="20.80" shape="227.50,-1.60 248.30,-1.60"/>
    </edge>
    <edge id=":10_10" function="internal">
        <lane id=":10_10_0" index="0" speed="1.40" length="19.35" shape="227.50,-1.60 232.75,-0.85 236.50,1.40 238.75,5.15 239.50,10.40"/>
    </edge>
    <edge id=":10_11" function="internal">
        <lane id=":10_11_0" index="0" speed="1.40" length="4.67" shape="227.50,-1.60 228.70,-0.80 229.10,0.00 228.70,0.80 227.50,1.60"/>
    </edge>
    <edge id=":11_0" function="internal">
        <lane id=":11_0_0" index="0" speed="1.40" length="9.03" shape="259.40,10.40 259.05,7.95 258.00,6.20 256.25,5.15 253.80,4.80"/>
        <lane id=":11_0_1" index="1" speed="1.40" length="14.19" shape="262.60,10.40 262.05,6.55 260.40,3.80 257.65,2.15 253.80,1.60"/>
    </edge>
    <edge id=":11_2" function="internal">
        <lane id=":11_2_0" index="0" speed="1.40" length="19.35" shape="262.60,10.40 263.35,5.15 265.60,1.40 269.35,-0.85 274.60,-1.60"/>
    </edge>
    <edge id=":11_3" function="internal">
        <lane id=":11_3_0" index="0" speed="1.40" length="4.67" shape="262.60,10.40 263.40,9.20 264.20,8.80 265.00,9.20 265.80,10.40"/>
    </edge>
    <edge id=":11_4" function="internal">
        <lane id=":11_4_0" index="0" speed="1.40" length="9.03" shape="274.60,4.80 272.15,5.15 270.40,6.20 269.35,7.95 269.00,10.40"/>
    </edge>
    <edge id=":11_5" function="internal">
        <lane id=":11_5_0" index="0" speed="1.40" length="20.80" shape="274.60,4.80 253.80,4.80"/>
        <lane id=":11_5_1" index="1" speed="1.40" length="20.80" shape="274.60,1.60 253.80,1.60"/>
    </edge>
    <edge id=":11_7" function="internal">
        <lane id=":11_7_0" index="0" speed="1.40" length="4.67" shape="274.60,1.60 273.40,0.80 273.00,0.00 273.40,-0.80 274.60,-1.60"/>
    </edge>
    <edge id=":11_8" function="internal">
        <lane id=":11_8_0" index="0" speed="1.40" length="20.80" shape="253.80,-4.80 274.60,-4.80"/>
        <lane id=":11_8_1" index="1" speed="1.40" length="20.80" shape="253.80,-1.60 274.60,-1.60"/>
    </edge>
    <edge id=":11_10" function="internal">
        <lane id=":11_10_0" index="0" speed="1.40" length="19.35" shape="253.80,-1.60 259.05,-0.85 262.80,1.40 265.05,5.15 265.80,10.40"/>
    </edge>
    <edge id=":11_11" function="internal">
        <lane id=":11_11_0" index="0" speed="1.40" length="4.67" shape="253.80,-1.60 255.00,-0.80 255.40,0.00 255.00,0.80 253.80,1.60"/>
    </edge>
    <edge id=":12_0" function="internal">
        <lane id=":12_0_0" index="0" speed="1.40" length="9.03" shape="285.70,10.40 285.35,7.95 284.30,6.20 282.55,5.15 280.10,4.80"/>
        <lane id=":12_0_1" index="1" speed="1.40" length="14.19" shape="288.90,10.40 288.35,6.55 286.70,3.80 283.95,2.15 280.10,1.60"/>
    </edge>
    <edge id=":12_2" function="internal">
        <lane id=":12_2_0" index="0" speed="1.40" length="19.35" shape="288.90,10.40 289.65,5.15 291.90,1.40 295.65,-0.85 300.90,-1.60"/>
    </edge>
    <edge id=":12_3" function="internal">
        <lane id=":12_3_0" index="0" speed="1.40" length="4.67" shape="288.90,10.40 289.70,9.20 290.50,8.80 291.30,9.20 292.10,10.40"/>
    </edge>
    <edge id=":12_4" function="internal">
        <lane id=":12_4_0" index="0" speed="1.40" length="9.03" shape="300.90,4.80 298.45,5.15 296.70,6.20 295.65,7.95 295.30,10.40"/>
    </edge>
    <edge id=":12_5" function="internal">
        <lane id=":12_5_0" index="0" speed="1.40" length="20.80" shape="300.90,4.80 280.10,4.80"/>
        <lane id=":12_5_1" index="1" speed="1.40" length="20.80" shape="300.90,1.60 280.10,1.60"/>
    </edge>
    <edge id=":12_7" function="internal">
        <lane id=":12_7_0" index="0" speed="1.40" length="4.67" shape="300.90,1.60 299.70,0.80 299.30,0.00 299.70,-0.80 300.90,-1.60"/>
    </edge>
    <edge id=":12_8" function="internal">
        <lane id=":12_8_0" index="0" speed="1.40" length="20.80" shape="280.10,-4.80 300.90,-4.80"/>
        <lane id=":12_8_1" index="1" speed="1.40" length="20.80" shape="280.10,-1.60 300.90,-1.60"/>
    </edge>
    <edge id=":12_10" function="internal">
        <lane id=":12_10_0" index="0" speed="1.40" length="19.35" shape="280.10,-1.60 285.35,-0.85 289.10,1.40 291.35,5.15 292.10,10.40"/>
    </edge>
    <edge id=":12_11" function="internal">
        <lane id=":12_11_0" index="0" speed="1.40" length="4.67" shape="280.10,-1.60 281.30,-0.80 281.70,0.00 281.30,0.80 280.10,1.60"/>
    </edge>
    <edge id=":13_0" function="internal">
        <lane id=":13_0_0" index="0" speed="1.40" length="2.58" shape="312.00,6.40 311.90,5.70 311.60,5.20 311.10,4.90 310.40,4.80"/>
        <lane id=":13_0_1" index="1" speed="1.40" length="7.74" shape="315.20,6.40 314.90,4.30 314.00,2.80 312.50,1.90 310.40,1.60"/>
    </edge>
    <edge id=":13_2" function="internal">
        <lane id=":13_2_0" index="0" speed="1.40" length="18.06" shape="310.40,-4.80 315.30,-4.10 318.80,-2.00 320.90,1.50 321.60,6.40"/>
        <lane id=":13_2_1" index="1" speed="1.40" length="12.90" shape="310.40,-1.60 313.90,-1.10 316.40,0.40 317.90,2.90 318.40,6.40"/>
    </edge>
    <edge id=":14_0" function="internal">
        <lane id=":14_0_0" index="0" speed="1.40" length="20.80" shape="-4.80,110.40 -4.80,89.60"/>
        <lane id=":14_0_1" index="1" speed="1.40" length="20.80" shape="-1.60,110.40 -1.60,89.60"/>
    </edge>
    <edge id=":14_2" function="internal">
        <lane id=":14_2_0" index="0" speed="1.40" length="19.35" shape="-1.60,110.40 -0.85,105.15 1.40,101.40 5.15,99.15 10.40,98.40"/>
    </edge>
    <edge id=":14_3" function="internal">
        <lane id=":14_3_0" index="0" speed="1.40" length="4.67" shape="-1.60,110.40 -0.80,109.20 0.00,108.80 0.80,109.20 1.60,110.40"/>
    </edge>
    <edge id=":14_4" function="internal">
        <lane id=":14_4_0" index="0" speed="1.40" length="9.03" shape="10.40,104.80 7.95,105.15 6.20,106.20 5.15,107.95 4.80,110.40"/>
        <lane id=":14_4_1" index="1" speed="1.40" length="14.19" shape="10.40,101.60 6.55,102.15 3.80,103.80 2.15,106.55 1.60,110.40"/>
    </edge>
    <edge id=":14_6" function="internal">
        <lane id=":14_6_0" index="0" speed="1.40" length="19.35" shape="10.40,101.60 5.15,100.85 1.40,98.60 -0.85,94.85 -1.60,89.60"/>
    </edge>
    <edge id=":14_7" function="internal">
        <lane id=":14_7_0" index="0" speed="1.40" length="4.67" shape="10.40,101.60 9.20,100.80 8.80,100.00 9.20,99.20 10.40,98.40"/>
    </edge>
    <edge id=":14_8" function="internal">
        <lane id=":14_8_0" index="0" speed="1.40" length="9.03" shape="4.80,89.60 5.15,92.05 6.20,93.80 7.95,94.85 10.40,95.20"/>
    </edge>
    <edge id=":14_9" function="internal">
        <lane id=":14_9_0" index="0" speed="1.40" length="20.80" shape="4.80,89.60 4.80,110.40"/>
        <lane id=":14_9_1" index="1" speed="1.40" length="20.80" shape="1.60,89.60 1.60,110.40"/>
    </edge>
    <edge id=":14_11" function="internal">
        <lane id=":14_11_0" index="0" speed="1.40" length="4.67" shape="1.60,89.60 0.80,90.80 0.00,91.20 -0.80,90.80 -1.60,89.60"/>
    </edge>
    <edge id=":15_0" function="internal">
        <lane id=":15_0_0" index="0" speed="1.40" length="9.03" shape="22.10,110.40 21.75,107.95 20.70,106.20 18.95,105.15 16.50,104.80"/>
    </edge>
    <edge id=":15_1" function="internal">
        <lane id=":15_1_0" index="0" speed="1.40" length="20.80" shape="22.10,110.40 22.10,89.60"/>
        <lane id=":15_1_1" index="1" speed="1.40" length="20.80" shape="25.30,110.40 25.30,89.60"/>
    </edge>
    <edge id=":15_3" function="internal">
        <lane id=":15_3_0" index="0" speed="1.40" length="19.35" shape="25.30,110.40 26.05,105.15 28.30,101.40 32.05,99.15 37.30,98.40"/>
    </edge>
    <edge id=":15_4" function="internal">
        <lane id=":15_4_0" index="0" speed="1.40" length="4.67" shape="25.30,110.40 26.10,109.20 26.90,108.80 27.70,109.20 28.50,110.40"/>
    </edge>
    <edge id=":15_5" function="internal">
        <lane id=":15_5_0" index="0" speed="1.40" length="9.03" shape="37.30,104.80 34.85,105.15 33.10,106.20 32.05,107.95 31.70,110.40"/>
    </edge>
    <edge id=":15_6" function="internal">
        <lane id=":15_6_0" index="0" speed="1.40" length="20.80" shape="37.30,104.80 16.50,104.80"/>
        <lane id=":15_6_1" index="1" speed="1.40" length="20.80" shape="37.30,101.60 16.50,101.60"/>
    </edge>
    <edge id=":15_8" function="internal">
        <lane id=":15_8_0" index="0" speed="1.40" length="19.35" shape="37.30,101.60 32.05,100.85 28.30,98.60 26.05,94.85 25.30,89.60"/>
    </edge>
    <edge id=":15_9" function="internal">
        <lane id=":15_9_0" index="0" speed="1.40" length="4.67" shape="37.30,101.60 36.10,100.80 35.70,100.00 36.10,99.20 37.30,98.40"/>
    </edge>
    <edge id=":15_10" function="internal">
        <lane id=":15_10_0" index="0" speed="1.40" length="9.03" shape="31.70,89.60 32.05,92.05 33.10,93.80 34.85,94.85 37.30,95.20"/>
    </edge>
    <edge id=":15_11" function="internal">
        <lane id=":15_11_0" index="0" speed="1.40" length="20.80" shape="31.70,89.60 31.70,110.40"/>
        <lane id=":15_11_1" index="1" speed="1.40" length="20.80" shape="28.50,89.60 28.50,110.40"/>
    </edge>
    <edge id=":15_13" function="internal">
        <lane id=":15_13_0" index="0" speed="1.40" length="19.35" shape="28.50,89.60 27.75,94.85 25.50,98.60 21.75,100.85 16.50,101.60"/>
    </edge>
    <edge id=":15_14" function="internal">
        <lane id=":15_14_0" index="0" speed="1.40" length="4.67" shape="28.50,89.60 27.70,90.80 26.90,91.20 26.10,90.80 25.30,89.60"/>
    </edge>
    <edge id=":15_15" function="internal">
        <lane id=":15_15_0" index="0" speed="1.40" length="9.03" shape="16.50,95.20 18.95,94.85 20.70,93.80 21.75,92.05 22.10,89.60"/>
    </edge>
    <edge id=":15_16" function="internal">
        <lane id=":15_16_0" index="0" speed="1.40" length="20.80" shape="16.50,95.20 37.30,95.20"/>
        <lane id=":15_16_1" index="1" speed="1.40" length="20.80" shape="16.50,98.40 37.30,98.40"/>
    </edge>
    <edge id=":15_18" function="internal">
        <lane id=":15_18_0" index="0" speed="1.40" length="19.35" shape="16.50,98.40 21.75,99.15 25.50,101.40 27.75,105.15 28.50,110.40"/>
    </edge>
    <edge id=":15_19" function="internal">
        <lane id=":15_19_0" index="0" speed="1.40" length="4.67" shape="16.50,98.40 17.70,99.20 18.10,100.00 17.70,100.80 16.50,101.60"/>
    </edge>
    <edge id=":16_0" function="internal">
        <lane id=":16_0_0" index="0" speed="1.40" length="9.03" shape="49.00,110.40 48.65,107.95 47.60,106.20 45.85,105.15 43.40,104.80"/>
    </edge>
    <edge id=":16_1" function="internal">
        <lane id=":16_1_0" index="0" speed="1.40" length="20.80" shape="49.00,110.40 49.00,89.60"/>
        <lane id=":16_1_1" index="1" speed="1.40" length="20.80" shape="52.20,110.40 52.20,89.60"/>
    </edge>
    <edge id=":16_3" function="internal">
        <lane id=":16_3_0" index="0" speed="1.40" length="19.35" shape="52.20,110.40 52.95,105.15 55.20,101.40 58.95,99.15 64.20,98.40"/>
    </edge>
    <edge id=":16_4" function="internal">
        <lane id=":16_4_0" index="0" speed="1.40" length="4.67" shape="52.20,110.40 53.00,109.20 53.80,108.80 54.60,109.20 55.40,110.40"/>
    </edge>
    <edge id=":16_5" function="internal">
        <lane id=":16_5_0" index="0" speed="1.40" length="9.03" shape="64.20,104.80 61.75,105.15 60.00,106.20 58.95,107.95 58.60,110.40"/>
    </edge>
    <edge id=":16_6" function="internal">
        <lane id=":16_6_0" index="0" speed="1.40" length="20.80" shape="64.20,104.80 43.40,104.80"/>
        <lane id=":16_6_1" index="1" speed="1.40" length="20.80" shape="64.20,101.60 43.40,101.60"/>
    </edge>
    <edge id=":16_8" function="internal">
        <lane id=":16_8_0" index="0" speed="1.40" length="19.35" shape="64.20,101.60 58.95,100.85 55.20,98.60 52.95,94.85 52.20,89.60"/>
    </edge>
    <edge id=":16_9" function="internal">
        <lane id=":16_9_0" index="0" speed="1.40" length="4.67" shape="64.20,101.60 63.00,100.80 62.60,100.00 63.00,99.20 64.20,98.40"/>
    </edge>
    <edge id=":16_10" function="internal">
        <lane id=":16_10_0" index="0" speed="1.40" length="9.03" shape="58.60,89.60 58.95,92.05 60.00,93.80 61.75,94.85 64.20,95.20"/>
    </edge>
    <edge id=":16_11" function="internal">
        <lane id=":16_11_0" index="0" speed="1.40" length="20.80" shape="58.60,89.60 58.60,110.40"/>
        <lane id=":16_11_1" index="1" speed="1.40" length="20.80" shape="55.40,89.60 55.40,110.40"/>
    </edge>
    <edge id=":16_13" function="internal">
        <lane id=":16_13_0" index="0" speed="1.40" length="19.35" shape="55.40,89.60 54.65,94.85 52.40,98.60 48.65,100.85 43.40,101.60"/>
    </edge>
    <edge id=":16_14" function="internal">
        <lane id=":16_14_0" index="0" speed="1.40" length="4.67" shape="55.40,89.60 54.60,90.80 53.80,91.20 53.00,90.80 52.20,89.60"/>
    </edge>
    <edge id=":16_15" function="internal">
        <lane id=":16_15_0" index="0" speed="1.40" length="9.03" shape="43.40,95.20 45.85,94.85 47.60,93.80 48.65,92.05 49.00,89.60"/>
    </edge>
    <edge id=":16_16" function="internal">
        <lane id=":16_16_0" index="0" speed="1.40" length="20.80" shape="43.40,95.20 64.20,95.20"/>
        <lane id=":16_16_1" index="1" speed="1.40" length="20.80" shape="43.40,98.40 64.20,98.40"/>
    </edge>
    <edge id=":16_18" function="internal">
        <lane id=":16_18_0" index="0" speed="1.40" length="19.35" shape="43.40,98.40 48.65,99.15 52.40,101.40 54.65,105.15 55.40,110.40"/>
    </edge>
    <edge id=":16_19" function="internal">
        <lane id=":16_19_0" index="0" speed="1.40" length="4.67" shape="43.40,98.40 44.60,99.20 45.00,100.00 44.60,100.80 43.40,101.60"/>
    </edge>
    <edge id=":17_0" function="internal">
        <lane id=":17_0_0" index="0" speed="1.40" length="9.03" shape="75.30,110.40 74.95,107.95 73.90,106.20 72.15,105.15 69.70,104.80"/>
    </edge>
    <edge id=":17_1" function="internal">
        <lane id=":17_1_0" index="0" speed="1.40" length="20.80" shape="75.30,110.40 75.30,89.60"/>
        <lane id=":17_1_1" index="1" speed="1.40" length="20.80" shape="78.50,110.40 78.50,89.60"/>
    </edge>
    <edge id=":17_3" function="internal">
        <lane id=":17_3_0" index="0" speed="1.40" length="19.35" shape="78.50,110.40 79.25,105.15 81.50,101.40 85.25,99.15 90.50,98.40"/>
    </edge>
    <edge id=":17_4" function="internal">
        <lane id=":17_4_0" index="0" speed="1.40" length="4.67" shape="78.50,110.40 79.30,109.20 80.10,108.80 80.90,109.20 81.70,110.40"/>
    </edge>
    <edge id=":17_5" function="internal">
        <lane id=":17_5_0" index="0" speed="1.40" length="9.03" shape="90.50,104.80 88.05,105.15 86.30,106.20 85.25,107.95 84.90,110.40"/>
    </edge>
    <edge id=":17_6" function="internal">
        <lane id=":17_6_0" index="0" speed="1.40" length="20.80" shape="90.50,104.80 69.70,104.80"/>
        <lane id=":17_6_1" index="1" speed="1.40" length="20.80" shape="90.50,101.60 69.70,101.60"/>
    </edge>
    <edge id=":17_8" function="internal">
        <lane id=":17_8_0" index="0" speed="1.40" length="19.35" shape="90.50,101.60 85.25,100.85 81.50,98.60 79.25,94.85 78.50,89.60"/>
    </edge>
    <edge id=":17_9" function="internal">
        <lane id=":17_9_0" index="0" speed="1.40" length="4.67" shape="90.50,101.60 89.30,100.80 88.90,100.00 89.30,99.20 90.50,98.40"/>
    </edge>
    <edge id=":17_10" function="internal">
        <lane id=":17_10_0" index="0" speed="1.40" length="9.03" shape="84.90,89.60 85.25,92.05 86.30,93.80 88.05,94.85 90.50,95.20"/>
    </edge>
    <edge id=":17_11" function="internal">
        <lane id=":17_11_0" index="0" speed="1.40" length="20.80" shape="84.90,89.60 84.90,110.40"/>
        <lane id=":17_11_1" index="1" speed="1.40" length="20.80" shape="81.70,89.60 81.70,110.40"/>
    </edge>
    <edge id=":17_13" function="internal">
        <lane id=":17_13_0" index="0" speed="1.40" length="19.35" shape="81.70,89.60 80.95,94.85 78.70,98.60 74.95,100.85 69.70,101.60"/>
    </edge>
    <edge id=":17_14" function="internal">
        <lane id=":17_14_0" index="0" speed="1.40" length="4.67" shape="81.70,89.60 80.90,90.80 80.10,91.20 79.30,90.80 78.50,89.60"/>
    </edge>
    <edge id=":17_15" function="internal">
        <lane id=":17_15_0" index="0" speed="1.40" length="9.03" shape="69.70,95.20 72.15,94.85 73.90,93.80 74.95,92.05 75.30,89.60"/>
    </edge>
    <edge id=":17_16" function="internal">
        <lane id=":17_16_0" index="0" speed="1.40" length="20.80" shape="69.70,95.20 90.50,95.20"/>
        <lane id=":17_16_1" index="1" speed="1.40" length="20.80" shape="69.70,98.40 90.50,98.40"/>
    </edge>
    <edge id=":17_18" function="internal">
        <lane id=":17_18_0" index="0" speed="1.40" length="19.35" shape="69.70,98.40 74.95,99.15 78.70,101.40 80.95,105.15 81.70,110.40"/>
    </edge>
    <edge id=":17_19" function="internal">
        <lane id=":17_19_0" index="0" speed="1.40" length="4.67" shape="69.70,98.40 70.90,99.20 71.30,100.00 70.90,100.80 69.70,101.60"/>
    </edge>
    <edge id=":18_0" function="internal">
        <lane id=":18_0_0" index="0" speed="1.40" length="9.03" shape="101.60,110.40 101.25,107.95 100.20,106.20 98.45,105.15 96.00,104.80"/>
    </edge>
    <edge id=":18_1" function="internal">
        <lane id=":18_1_0" index="0" speed="1.40" length="20.80" shape="101.60,110.40 101.60,89.60"/>
        <lane id=":18_1_1" index="1" speed="1.40" length="20.80" shape="104.80,110.40 104.80,89.60"/>
    </edge>
    <edge id=":18_3" function="internal">
        <lane id=":18_3_0" index="0" speed="1.40" length="19.35" shape="104.80,110.40 105.55,105.15 107.80,101.40 111.55,99.15 116.80,98.40"/>
    </edge>
    <edge id=":18_4" function="internal">
        <lane id=":18_4_0" index="0" speed="1.40" length="4.67" shape="104.80,110.40 105.60,109.20 106.40,108.80 107.20,109.20 108.00,110.40"/>
    </edge>
    <edge id=":18_5" function="internal">
        <lane id=":18_5_0" index="0" speed="1.40" length="9.03" shape="116.80,104.80 114.35,105.15 112.60,106.20 111.55,107.95 111.20,110.40"/>
    </edge>
    <edge id=":18_6" function="internal">
        <lane id=":18_6_0" index="0" speed="1.40" length="20.80" shape="116.80,104.80 96.00,104.80"/>
        <lane id=":18_6_1" index="1" speed="1.40" length="20.80" shape="116.80,101.60 96.00,101.60"/>
    </edge>
    <edge id=":18_8" function="internal">
        <lane id=":18_8_0" index="0" speed="1.40" length="19.35" shape="116.80,101.60 111.55,100.85 107.80,98.60 105.55,94.85 104.80,89.60"/>
    </edge>
    <edge id=":18_9" function="internal">
        <lane id=":18_9_0" index="0" speed="1.40" length="4.67" shape="116.80,101.60 115.60,100.80 115.20,100.00 115.60,99.20 116.80,98.40"/>
    </edge>
    <edge id=":18_10" function="internal">
        <lane id=":18_10_0" index="0" speed="1.40" length="9.03" shape="111.20,89.60 111.55,92.05 112.60,93.80 114.35,94.85 116.80,95.20"/>
    </edge>
    <edge id=":18_11" function="internal">
        <lane id=":18_11_0" index="0" speed="1.40" length="20.80" shape="111.20,89.60 111.20,110.40"/>
        <lane id=":18_11_1" index="1" speed="1.40" length="20.80" shape="108.00,89.60 108.00,110.40"/>
    </edge>
    <edge id=":18_13" function="internal">
        <lane id=":18_13_0" index="0" speed="1.40" length="19.35" shape="108.00,89.60 107.25,94.85 105.00,98.60 101.25,100.85 96.00,101.60"/>
    </edge>
    <edge id=":18_14" function="internal">
        <lane id=":18_14_0" index="0" speed="1.40" length="4.67" shape="108.00,89.60 107.20,90.80 106.40,91.20 105.60,90.80 104.80,89.60"/>
    </edge>
    <edge id=":18_15" function="internal">
        <lane id=":18_15_0" index="0" speed="1.40" length="9.03" shape="96.00,95.20 98.45,94.85 100.20,93.80 101.25,92.05 101.60,89.60"/>
    </edge>
    <edge id=":18_16" function="internal">
        <lane id=":18_16_0" index="0" speed="1.40" length="20.80" shape="96.00,95.20 116.80,95.20"/>
        <lane id=":18_16_1" index="1" speed="1.40" length="20.80" shape="96.00,98.40 116.80,98.40"/>
    </edge>
    <edge id=":18_18" function="internal">
        <lane id=":18_18_0" index="0" speed="1.40" length="19.35" shape="96.00,98.40 101.25,99.15 105.00,101.40 107.25,105.15 108.00,110.40"/>
    </edge>
    <edge id=":18_19" function="internal">
        <lane id=":18_19_0" index="0" speed="1.40" length="4.67" shape="96.00,98.40 97.20,99.20 97.60,100.00 97.20,100.80 96.00,101.60"/>
    </edge>
    <edge id=":19_0" function="internal">
        <lane id=":19_0_0" index="0" speed="1.40" length="9.03" shape="127.90,110.40 127.55,107.95 126.50,106.20 124.75,105.15 122.30,104.80"/>
    </edge>
    <edge id=":19_1" function="internal">
        <lane id=":19_1_0" index="0" speed="1.40" length="20.80" shape="127.90,110.40 127.90,89.60"/>
        <lane id=":19_1_1" index="1" speed="1.40" length="20.80" shape="131.10,110.40 131.10,89.60"/>
    </edge>
    <edge id=":19_3" function="internal">
        <lane id=":19_3_0" index="0" speed="1.40" length="19.35" shape="131.10,110.40 131.85,105.15 134.10,101.40 137.85,99.15 143.10,98.40"/>
    </edge>
    <edge id=":19_4" function="internal">
        <lane id=":19_4_0" index="0" speed="1.40" length="4.67" shape="131.10,110.40 131.90,109.20 132.70,108.80 133.50,109.20 134.30,110.40"/>
    </edge>
    <edge id=":19_5" function="internal">
        <lane id=":19_5_0" index="0" speed="1.40" length="9.03" shape="143.10,104.80 140.65,105.15 138.90,106.20 137.85,107.95 137.50,110.40"/>
    </edge>
    <edge id=":19_6" function="internal">
        <lane id=":19_6_0" index="0" speed="1.40" length="20.80" shape="143.10,104.80 122.30,104.80"/>
        <lane id=":19_6_1" index="1" speed="1.40" length="20.80" shape="143.10,101.60 122.30,101.60"/>
    </edge>
    <edge id=":19_8" function="internal">
        <lane id=":19_8_0" index="0" speed="1.40" length="19.35" shape="143.10,101.60 137.85,100.85 134.10,98.60 131.85,94.85 131.10,89.60"/>
    </edge>
    <edge id=":19_9" function="internal">
        <lane id=":19_9_0" index="0" speed="1.40" length="4.67" shape="143.10,101.60 141.90,100.80 141.50,100.00 141.90,99.20 143.10,98.40"/>
    </edge>
    <edge id=":19_10" function="internal">
        <lane id=":19_10_0" index="0" speed="1.40" length="9.03" shape="137.50,89.60 137.85,92.05 138.90,93.80 140.65,94.85 143.10,95.20"/>
    </edge>
    <edge id=":19_11" function="internal">
        <lane id=":19_11_0" index="0" speed="1.40" length="20.80" shape="137.50,89.60 137.50,110.40"/>
        <lane id=":19_11_1" index="1" speed="1.40" length="20.80" shape="134.30,89.60 134.30,110.40"/>
    </edge>
    <edge id=":19_13" function="internal">
        <lane id=":19_13_0" index="0" speed="1.40" length="19.35" shape="134.30,89.60 133.55,94.85 131.30,98.60 127.55,100.85 122.30,101.60"/>
    </edge>
    <edge id=":19_14" function="internal">
        <lane id=":19_14_0" index="0" speed="1.40" length="4.67" shape="134.30,89.60 133.50,90.80 132.70,91.20 131.90,90.80 131.10,89.60"/>
    </edge>
    <edge id=":19_15" function="internal">
        <lane id=":19_15_0" index="0" speed="1.40" length="9.03" shape="122.30,95.20 124.75,94.85 126.50,93.80 127.55,92.05 127.90,89.60"/>
    </edge>
    <edge id=":19_16" function="internal">
        <lane id=":19_16_0" index="0" speed="1.40" length="20.80" shape="122.30,95.20 143.10,95.20"/>
        <lane id=":19_16_1" index="1" speed="1.40" length="20.80" shape="122.30,98.40 143.10,98.40"/>
    </edge>
    <edge id=":19_18" function="internal">
        <lane id=":19_18_0" index="0" speed="1.40" length="19.35" shape="122.30,98.40 127.55,99.15 131.30,101.40 133.55,105.15 134.30,110.40"/>
    </edge>
    <edge id=":19_19" function="internal">
        <lane id=":19_19_0" index="0" speed="1.40" length="4.67" shape="122.30,98.40 123.50,99.20 123.90,100.00 123.50,100.80 122.30,101.60"/>
    </edge>
    <edge id=":2_0" function="internal">
        <lane id=":2_0_0" index="0" speed="1.40" length="9.03" shape="22.10,10.40 21.75,7.95 20.70,6.20 18.95,5.15 16.50,4.80"/>
        <lane id=":2_0_1" index="1" speed="1.40" length="14.19" shape="25.30,10.40 24.75,6.55 23.10,3.80 20.35,2.15 16.50,1.60"/>
    </edge>
    <edge id=":2_2" function="internal">
        <lane id=":2_2_0" index="0" speed="1.40" length="19.35" shape="25.30,10.40 26.05,5.15 28.30,1.40 32.05,-0.85 37.30,-1.60"/>
    </edge>
    <edge id=":2_3" function="internal">
        <lane id=":2_3_0" index="0" speed="1.40" length="4.67" shape="25.30,10.40 26.10,9.20 26.90,8.80 27.70,9.20 28.50,10.40"/>
    </edge>
    <edge id=":2_4" function="internal">
        <lane id=":2_4_0" index="0" speed="1.40" length="9.03" shape="37.30,4.80 34.85,5.15 33.10,6.20 32.05,7.95 31.70,10.40"/>
    </edge>
    <edge id=":2_5" function="internal">
        <lane id=":2_5_0" index="0" speed="1.40" length="20.80" shape="37.30,4.80 16.50,4.80"/>
        <lane id=":2_5_1" index="1" speed="1.40" length="20.80" shape="37.30,1.60 16.50,1.60"/>
    </edge>
    <edge id=":2_7" function="internal">
        <lane id=":2_7_0" index="0" speed="1.40" length="4.67" shape="37.30,1.60 36.10,0.80 35.70,0.00 36.10,-0.80 37.30,-1.60"/>
    </edge>
    <edge id=":2_8" function="internal">
        <lane id=":2_8_0" index="0" speed="1.40" length="20.80" shape="16.50,-4.80 37.30,-4.80"/>
        <lane id=":2_8_1" index="1" speed="1.40" length="20.80" shape="16.50,-1.60 37.30,-1.60"/>
    </edge>
    <edge id=":2_10" function="internal">
        <lane id=":2_10_0" index="0" speed="1.40" length="19.35" shape="16.50,-1.60 21.75,-0.85 25.50,1.40 27.75,5.15 28.50,10.40"/>
    </edge>
    <edge id=":2_11" function="internal">
        <lane id=":2_11_0" index="0" speed="1.40" length="4.67" shape="16.50,-1.60 17.70,-0.80 18.10,0.00 17.70,0.80 16.50,1.60"/>
    </edge>
    <edge id=":20_0" function="internal">
        <lane id=":20_0_0" index="0" speed="1.40" length="9.03" shape="154.20,110.40 153.85,107.95 152.80,106.20 151.05,105.15 148.60,104.80"/>
    </edge>
    <edge id=":20_1" function="internal">
        <lane id=":20_1_0" index="0" speed="1.40" length="20.80" shape="154.20,110.40 154.20,89.60"/>
        <lane id=":20_1_1" index="1" speed="1.40" length="20.80" shape="157.40,110.40 157.40,89.60"/>
    </edge>
    <edge id=":20_3" function="internal">
        <lane id=":20_3_0" index="0" speed="1.40" length="19.35" shape="157.40,110.40 158.15,105.15 160.40,101.40 164.15,99.15 169.40,98.40"/>
    </edge>
    <edge id=":20_4" function="internal">